@<TRIPOS>MOLECULE
135398737
 42 45 0 0 0
SMALL
GASTEIGER

@<TRIPOS>ATOM
      1 CL          8.7204   -1.2603    0.0000 Cl      1  UNL1       -0.0834
      2 N           3.9491    0.5044    0.0000 N.pl3   1  UNL1       -0.2176
      3 N           3.0814    2.3063    0.0000 N.3     1  UNL1       -0.2982
      4 N           5.3830   -0.3966    0.0000 N.2     1  UNL1       -0.0395
      5 N           4.8830   -2.5873    0.0000 N.pl3   1  UNL1       -0.3104
      6 C           2.9519    0.5791    0.0000 C.3     1  UNL1        0.0933
      7 C           4.5125    1.3306    0.0000 C.3     1  UNL1        0.0933
      8 C           2.5180    1.4801    0.0000 C.3     1  UNL1        0.0348
      9 C           4.0786    2.2316    0.0000 C.3     1  UNL1        0.0348
     10 C           4.3830   -0.3966    0.0000 C.2     1  UNL1        0.3231
     11 C           3.7595   -1.1784    0.0000 C.ar    1  UNL1        0.0867
     12 C           2.6475    3.2073    0.0000 C.3     1  UNL1       -0.0125
     13 C           3.9820   -2.1534    0.0000 C.ar    1  UNL1        0.0464
     14 C           6.0065   -1.1785    0.0000 C.ar    1  UNL1        0.1988
     15 C           5.7840   -2.1534    0.0000 C.ar    1  UNL1        0.0829
     16 C           2.7690   -0.8561    0.0000 C.ar    1  UNL1       -0.0451
     17 C           3.2295   -2.8736    0.0000 C.ar    1  UNL1       -0.0397
     18 C           2.0000   -1.5587    0.0000 C.ar    1  UNL1       -0.0608
     19 C           6.9970   -0.8561    0.0000 C.ar    1  UNL1        0.0093
     20 C           2.2318   -2.5742    0.0000 C.ar    1  UNL1       -0.0600
     21 C           6.5365   -2.8736    0.0000 C.ar    1  UNL1       -0.0349
     22 C           7.7660   -1.5587    0.0000 C.ar    1  UNL1        0.0452
     23 C           7.5342   -2.5742    0.0000 C.ar    1  UNL1       -0.0414
     24 H           2.3551    0.4112    0.0000 H       1  UNL1        0.0739
     25 H           3.0137   -0.0378    0.0000 H       1  UNL1        0.0739
     26 H           4.9563    0.8977    0.0000 H       1  UNL1        0.0739
     27 H           5.0159    1.6925    0.0000 H       1  UNL1        0.0739
     28 H           2.0742    1.9130    0.0000 H       1  UNL1        0.0463
     29 H           2.0146    1.1181    0.0000 H       1  UNL1        0.0463
     30 H           4.6754    2.3995    0.0000 H       1  UNL1        0.0463
     31 H           4.0168    2.8485    0.0000 H       1  UNL1        0.0463
     32 H           3.2061    3.4763    0.0000 H       1  UNL1        0.0391
     33 H           2.3785    3.7659    0.0000 H       1  UNL1        0.0391
     34 H           2.0889    2.9383    0.0000 H       1  UNL1        0.0391
     35 H           2.6380   -0.2501    0.0000 H       1  UNL1        0.0627
     36 H           4.8830   -3.2073    0.0000 H       1  UNL1        0.1523
     37 H           3.3744   -3.4764    0.0000 H       1  UNL1        0.0636
     38 H           1.4083   -1.3736    0.0000 H       1  UNL1        0.0618
     39 H           7.1280   -0.2501    0.0000 H       1  UNL1        0.0676
     40 H           1.7789   -2.9976    0.0000 H       1  UNL1        0.0618
     41 H           6.3916   -3.4764    0.0000 H       1  UNL1        0.0638
     42 H           7.9871   -2.9977    0.0000 H       1  UNL1        0.0633
@<TRIPOS>BOND
     1     1    22    1
     2     2     6    1
     3     2     7    1
     4     2    10    1
     5     3     8    1
     6     3     9    1
     7     3    12    1
     8     4    10    2
     9     4    14    1
    10     5    13    1
    11     5    15    1
    12     5    36    1
    13     6     8    1
    14     6    24    1
    15     6    25    1
    16     7     9    1
    17     7    26    1
    18     7    27    1
    19     8    28    1
    20     8    29    1
    21     9    30    1
    22     9    31    1
    23    10    11    1
    24    11    13   ar
    25    11    16   ar
    26    12    32    1
    27    12    33    1
    28    12    34    1
    29    13    17   ar
    30    14    15   ar
    31    14    19   ar
    32    15    21   ar
    33    16    18   ar
    34    16    35    1
    35    17    20   ar
    36    17    37    1
    37    18    20   ar
    38    18    38    1
    39    19    22   ar
    40    19    39    1
    41    20    40    1
    42    21    23   ar
    43    21    41    1
    44    22    23   ar
    45    23    42    1
