@<TRIPOS>MOLECULE
(-)-guaia-1(10),11-dien-15-al
41 42 1 0 0
SMALL
USER_CHARGES


@<TRIPOS>ATOM
      1 C          -1.0833   -0.3506   -1.6413 C.2       1     (-)-guaia-1(10),11-dien-15-al    0.0000
      2 C          -1.1663   -1.6194   -0.8118 C.3       1     (-)-guaia-1(10),11-dien-15-al    0.0000
      3 C          -0.7364   -1.4341    0.6581 C.3       1     (-)-guaia-1(10),11-dien-15-al    0.0000
      4 C          -0.5872    0.0075    1.1885 C.3       1     (-)-guaia-1(10),11-dien-15-al    0.0000
      5 C           0.8688    0.5042    1.3164 C.3       1     (-)-guaia-1(10),11-dien-15-al    0.0000
      6 C           1.5940    0.9129    0.0173 C.3       1     (-)-guaia-1(10),11-dien-15-al    0.0000
      7 C           1.3656    0.0101   -1.2055 C.3       1     (-)-guaia-1(10),11-dien-15-al    0.0000
      8 C           0.0474    0.3545   -1.8660 C.2       1     (-)-guaia-1(10),11-dien-15-al    0.0000
      9 C           0.9687    1.6467    2.3221 C.2       1     (-)-guaia-1(10),11-dien-15-al    0.0000
     10 C          -2.4617    0.0243   -2.1363 C.3       1     (-)-guaia-1(10),11-dien-15-al    0.0000
     11 C          -3.4022   -0.7945   -1.2433 C.3       1     (-)-guaia-1(10),11-dien-15-al    0.0000
     12 C          -2.6202   -2.0990   -1.0509 C.3       1     (-)-guaia-1(10),11-dien-15-al    0.0000
     13 C          -3.2652   -3.0408   -0.0286 C.3       1     (-)-guaia-1(10),11-dien-15-al    0.0000
     14 H          -0.4988   -2.3888   -1.2759 H         1     (-)-guaia-1(10),11-dien-15-al    0.0000
     15 C           1.8467    1.6057    3.3380 C.2       1     (-)-guaia-1(10),11-dien-15-al    0.0000
     16 C           0.0596    2.8409    2.1364 C.3       1     (-)-guaia-1(10),11-dien-15-al    0.0000
     17 C           0.0273    1.5742   -2.7111 C.2       1     (-)-guaia-1(10),11-dien-15-al    0.0000
     18 O          -0.8751    1.9196   -3.4594 O.2       1     (-)-guaia-1(10),11-dien-15-al    0.0000
     19 H           0.2184   -1.9842    0.8289 H         1     (-)-guaia-1(10),11-dien-15-al    0.0000
     20 H          -1.4359   -1.9863    1.3219 H         1     (-)-guaia-1(10),11-dien-15-al    0.0000
     21 H          -1.0082    0.0025    2.2255 H         1     (-)-guaia-1(10),11-dien-15-al    0.0000
     22 H          -1.2188    0.7292    0.6265 H         1     (-)-guaia-1(10),11-dien-15-al    0.0000
     23 H           1.4494   -0.3551    1.7385 H         1     (-)-guaia-1(10),11-dien-15-al    0.0000
     24 H           1.3210    1.9552   -0.2631 H         1     (-)-guaia-1(10),11-dien-15-al    0.0000
     25 H           2.6897    0.9455    0.2375 H         1     (-)-guaia-1(10),11-dien-15-al    0.0000
     26 H           1.4468   -1.0600   -0.9202 H         1     (-)-guaia-1(10),11-dien-15-al    0.0000
     27 H           2.1764    0.1673   -1.9561 H         1     (-)-guaia-1(10),11-dien-15-al    0.0000
     28 H          -2.6899    1.1088   -2.0339 H         1     (-)-guaia-1(10),11-dien-15-al    0.0000
     29 H          -2.5663   -0.2940   -3.2002 H         1     (-)-guaia-1(10),11-dien-15-al    0.0000
     30 H          -4.4067   -0.9457   -1.6992 H         1     (-)-guaia-1(10),11-dien-15-al    0.0000
     31 H          -3.5315   -0.2922   -0.2551 H         1     (-)-guaia-1(10),11-dien-15-al    0.0000
     32 H          -2.6394   -2.6345   -2.0374 H         1     (-)-guaia-1(10),11-dien-15-al    0.0000
     33 H          -2.6121   -3.9209    0.1712 H         1     (-)-guaia-1(10),11-dien-15-al    0.0000
     34 H          -4.2391   -3.4239   -0.4111 H         1     (-)-guaia-1(10),11-dien-15-al    0.0000
     35 H          -3.4908   -2.5330    0.9351 H         1     (-)-guaia-1(10),11-dien-15-al    0.0000
     36 H           1.9244    2.4289    4.0635 H         1     (-)-guaia-1(10),11-dien-15-al    0.0000
     37 H           2.5223    0.7501    3.4841 H         1     (-)-guaia-1(10),11-dien-15-al    0.0000
     38 H           0.2654    3.6479    2.8743 H         1     (-)-guaia-1(10),11-dien-15-al    0.0000
     39 H           0.1799    3.2892    1.1261 H         1     (-)-guaia-1(10),11-dien-15-al    0.0000
     40 H          -1.0068    2.5511    2.2642 H         1     (-)-guaia-1(10),11-dien-15-al    0.0000
     41 H           0.9598    2.1806   -2.6677 H         1     (-)-guaia-1(10),11-dien-15-al    0.0000
@<TRIPOS>BOND
     1     1     2     1
     2     1     8     2
     3     1    10     1
     4     2     3     1
     5     2    12     1
     6     2    14     1
     7     3     4     1
     8     3    19     1
     9     3    20     1
    10     4     5     1
    11     4    21     1
    12     4    22     1
    13     5     6     1
    14     5     9     1
    15     5    23     1
    16     6     7     1
    17     6    24     1
    18     6    25     1
    19     7     8     1
    20     7    26     1
    21     7    27     1
    22     8    17     1
    23     9    15     2
    24     9    16     1
    25    10    11     1
    26    10    28     1
    27    10    29     1
    28    11    12     1
    29    11    30     1
    30    11    31     1
    31    12    13     1
    32    12    32     1
    33    13    33     1
    34    13    34     1
    35    13    35     1
    36    15    36     1
    37    15    37     1
    38    16    38     1
    39    16    39     1
    40    16    40     1
    41    17    18     2
    42    17    41     1
