@<TRIPOS>MOLECULE
(-)-guaia-l(10),11-dien-15,2-olide
40 42 1 0 0
SMALL
USER_CHARGES


@<TRIPOS>ATOM
      1 C          -1.7533    1.4423   -0.7460 C.2       1     (-)-guaia-l(10),11-dien-15,2-olide    0.0000
      2 C          -2.1057    0.0122   -0.4863 C.3       1     (-)-guaia-l(10),11-dien-15,2-olide    0.0000
      3 C          -1.3528   -1.2431   -0.9571 C.3       1     (-)-guaia-l(10),11-dien-15,2-olide    0.0000
      4 C           0.0878   -1.6364   -0.5776 C.3       1     (-)-guaia-l(10),11-dien-15,2-olide    0.0000
      5 C           0.9989   -0.4616   -0.2145 C.3       1     (-)-guaia-l(10),11-dien-15,2-olide    0.0000
      6 C           1.1933    0.4847   -1.4141 C.3       1     (-)-guaia-l(10),11-dien-15,2-olide    0.0000
      7 C           0.7925    1.9297   -1.1208 C.3       1     (-)-guaia-l(10),11-dien-15,2-olide    0.0000
      8 C          -0.6680    2.2074   -0.9356 C.2       1     (-)-guaia-l(10),11-dien-15,2-olide    0.0000
      9 C          -2.9771    2.2660   -0.4529 C.3       1     (-)-guaia-l(10),11-dien-15,2-olide    0.0000
     10 C          -3.5184    1.5522    0.7912 C.3       1     (-)-guaia-l(10),11-dien-15,2-olide    0.0000
     11 C          -2.6564    0.2554    0.9461 C.3       1     (-)-guaia-l(10),11-dien-15,2-olide    0.0000
     12 C          -1.6183    0.5668    2.0392 C.3       1     (-)-guaia-l(10),11-dien-15,2-olide    0.0000
     13 C           0.1780   -2.8420    0.3512 C.2       1     (-)-guaia-l(10),11-dien-15,2-olide    0.0000
     14 H          -3.0512   -0.1087   -1.0912 H         1     (-)-guaia-l(10),11-dien-15,2-olide    0.0000
     15 C           0.7279   -4.0000   -0.0570 C.2       1     (-)-guaia-l(10),11-dien-15,2-olide    0.0000
     16 C          -0.3700   -2.7414    1.7500 C.3       1     (-)-guaia-l(10),11-dien-15,2-olide    0.0000
     17 O          -2.5250    3.5891   -0.2886 O.3       1     (-)-guaia-l(10),11-dien-15,2-olide    0.0000
     18 H          -3.6962    2.2283   -1.3044 H         1     (-)-guaia-l(10),11-dien-15,2-olide    0.0000
     19 C          -1.2118    3.5632   -0.6733 C.2       1     (-)-guaia-l(10),11-dien-15,2-olide    0.0000
     20 O          -0.5157    4.5717   -0.7165 O.2       1     (-)-guaia-l(10),11-dien-15,2-olide    0.0000
     21 H          -2.0004   -2.1293   -0.7462 H         1     (-)-guaia-l(10),11-dien-15,2-olide    0.0000
     22 H          -1.3626   -1.1625   -2.0758 H         1     (-)-guaia-l(10),11-dien-15,2-olide    0.0000
     23 H           0.5452   -2.0287   -1.5261 H         1     (-)-guaia-l(10),11-dien-15,2-olide    0.0000
     24 H           1.9923   -0.8615    0.1028 H         1     (-)-guaia-l(10),11-dien-15,2-olide    0.0000
     25 H           0.6077    0.0834    0.6678 H         1     (-)-guaia-l(10),11-dien-15,2-olide    0.0000
     26 H           0.6405    0.1457   -2.3200 H         1     (-)-guaia-l(10),11-dien-15,2-olide    0.0000
     27 H           2.2727    0.4689   -1.7045 H         1     (-)-guaia-l(10),11-dien-15,2-olide    0.0000
     28 H           1.3343    2.2911   -0.2153 H         1     (-)-guaia-l(10),11-dien-15,2-olide    0.0000
     29 H           1.1311    2.5684   -1.9726 H         1     (-)-guaia-l(10),11-dien-15,2-olide    0.0000
     30 H          -4.5867    1.2747    0.6253 H         1     (-)-guaia-l(10),11-dien-15,2-olide    0.0000
     31 H          -3.4916    2.2049    1.6920 H         1     (-)-guaia-l(10),11-dien-15,2-olide    0.0000
     32 H          -3.2784   -0.6105    1.2784 H         1     (-)-guaia-l(10),11-dien-15,2-olide    0.0000
     33 H          -0.9119   -0.2650    2.2042 H         1     (-)-guaia-l(10),11-dien-15,2-olide    0.0000
     34 H          -2.1161    0.7406    3.0208 H         1     (-)-guaia-l(10),11-dien-15,2-olide    0.0000
     35 H          -1.0159    1.4745    1.8120 H         1     (-)-guaia-l(10),11-dien-15,2-olide    0.0000
     36 H           0.7893   -4.8722    0.6108 H         1     (-)-guaia-l(10),11-dien-15,2-olide    0.0000
     37 H           1.1382   -4.1335   -1.0687 H         1     (-)-guaia-l(10),11-dien-15,2-olide    0.0000
     38 H           0.2360   -2.0210    2.3413 H         1     (-)-guaia-l(10),11-dien-15,2-olide    0.0000
     39 H          -0.3319   -3.7092    2.2974 H         1     (-)-guaia-l(10),11-dien-15,2-olide    0.0000
     40 H          -1.4393   -2.4357    1.7277 H         1     (-)-guaia-l(10),11-dien-15,2-olide    0.0000
@<TRIPOS>BOND
     1     1     2     1
     2     1     8     2
     3     1     9     1
     4     2     3     1
     5     2    11     1
     6     2    14     1
     7     3     4     1
     8     3    21     1
     9     3    22     1
    10     4     5     1
    11     4    13     1
    12     4    23     1
    13     5     6     1
    14     5    24     1
    15     5    25     1
    16     6     7     1
    17     6    26     1
    18     6    27     1
    19     7     8     1
    20     7    28     1
    21     7    29     1
    22     8    19     1
    23     9    10     1
    24     9    17     1
    25     9    18     1
    26    10    11     1
    27    10    30     1
    28    10    31     1
    29    11    12     1
    30    11    32     1
    31    12    33     1
    32    12    34     1
    33    12    35     1
    34    13    15     2
    35    13    16     1
    36    15    36     1
    37    15    37     1
    38    16    38     1
    39    16    39     1
    40    16    40     1
    41    17    19     1
    42    19    20     2
