@<TRIPOS>MOLECULE
(-)-guaia-l(10),11-dien-15-ol
43 44 1 0 0
SMALL
USER_CHARGES


@<TRIPOS>ATOM
      1 C          -0.9099    0.1029   -1.4408 C.2       1     (-)-guaia-l(10),11-dien-15-ol    0.0000
      2 C          -1.1131   -1.2916   -0.8815 C.3       1     (-)-guaia-l(10),11-dien-15-ol    0.0000
      3 C          -0.5661   -1.5741    0.5350 C.3       1     (-)-guaia-l(10),11-dien-15-ol    0.0000
      4 C          -0.4858   -0.4799    1.6226 C.3       1     (-)-guaia-l(10),11-dien-15-ol    0.0000
      5 C           0.3735    0.7629    1.3130 C.3       1     (-)-guaia-l(10),11-dien-15-ol    0.0000
      6 C           1.6897    0.5596    0.5390 C.3       1     (-)-guaia-l(10),11-dien-15-ol    0.0000
      7 C           1.5325    0.1832   -0.9451 C.3       1     (-)-guaia-l(10),11-dien-15-ol    0.0000
      8 C           0.2646    0.7546   -1.5355 C.2       1     (-)-guaia-l(10),11-dien-15-ol    0.0000
      9 C          -2.2265    0.6565   -1.9320 C.3       1     (-)-guaia-l(10),11-dien-15-ol    0.0000
     10 C          -3.2789   -0.2138   -1.2346 C.3       1     (-)-guaia-l(10),11-dien-15-ol    0.0000
     11 C          -2.6065   -1.5906   -1.1700 C.3       1     (-)-guaia-l(10),11-dien-15-ol    0.0000
     12 C          -3.3430   -2.5781   -0.2615 C.3       1     (-)-guaia-l(10),11-dien-15-ol    0.0000
     13 C          -1.8308   -0.1502    2.2580 C.2       1     (-)-guaia-l(10),11-dien-15-ol    0.0000
     14 H          -0.5547   -1.9850   -1.5657 H         1     (-)-guaia-l(10),11-dien-15-ol    0.0000
     15 C          -2.4973   -1.0782    2.9657 C.2       1     (-)-guaia-l(10),11-dien-15-ol    0.0000
     16 C          -2.3898    1.2505    2.1455 C.3       1     (-)-guaia-l(10),11-dien-15-ol    0.0000
     17 C           0.3584    2.1467   -2.1167 C.3       1     (-)-guaia-l(10),11-dien-15-ol    0.0000
     18 O           0.0234    3.1348   -1.1517 O.3       1     (-)-guaia-l(10),11-dien-15-ol    0.0000
     19 H           0.4775   -1.9545    0.4251 H         1     (-)-guaia-l(10),11-dien-15-ol    0.0000
     20 H          -1.0728   -2.4754    0.9453 H         1     (-)-guaia-l(10),11-dien-15-ol    0.0000
     21 H           0.0782   -0.9752    2.4617 H         1     (-)-guaia-l(10),11-dien-15-ol    0.0000
     22 H           0.6237    1.2575    2.2848 H         1     (-)-guaia-l(10),11-dien-15-ol    0.0000
     23 H          -0.2285    1.5169    0.7642 H         1     (-)-guaia-l(10),11-dien-15-ol    0.0000
     24 H           2.2389    1.5343    0.5717 H         1     (-)-guaia-l(10),11-dien-15-ol    0.0000
     25 H           2.3391   -0.1803    1.0630 H         1     (-)-guaia-l(10),11-dien-15-ol    0.0000
     26 H           1.5457   -0.9196   -1.0779 H         1     (-)-guaia-l(10),11-dien-15-ol    0.0000
     27 H           2.4193    0.5155   -1.5321 H         1     (-)-guaia-l(10),11-dien-15-ol    0.0000
     28 H          -2.3686    1.7340   -1.6944 H         1     (-)-guaia-l(10),11-dien-15-ol    0.0000
     29 H          -2.2814    0.5072   -3.0359 H         1     (-)-guaia-l(10),11-dien-15-ol    0.0000
     30 H          -4.2525   -0.2232   -1.7753 H         1     (-)-guaia-l(10),11-dien-15-ol    0.0000
     31 H          -3.4692    0.1469   -0.1995 H         1     (-)-guaia-l(10),11-dien-15-ol    0.0000
     32 H          -2.6747   -2.0063   -2.2112 H         1     (-)-guaia-l(10),11-dien-15-ol    0.0000
     33 H          -2.8324   -3.5677   -0.2441 H         1     (-)-guaia-l(10),11-dien-15-ol    0.0000
     34 H          -4.3828   -2.7457   -0.6249 H         1     (-)-guaia-l(10),11-dien-15-ol    0.0000
     35 H          -3.4268   -2.2002    0.7796 H         1     (-)-guaia-l(10),11-dien-15-ol    0.0000
     36 H          -3.4585   -0.8533    3.4510 H         1     (-)-guaia-l(10),11-dien-15-ol    0.0000
     37 H          -2.1046   -2.0975    3.0949 H         1     (-)-guaia-l(10),11-dien-15-ol    0.0000
     38 H          -2.4398    1.5946    1.0904 H         1     (-)-guaia-l(10),11-dien-15-ol    0.0000
     39 H          -1.7595    1.9652    2.7208 H         1     (-)-guaia-l(10),11-dien-15-ol    0.0000
     40 H          -3.4216    1.3300    2.5539 H         1     (-)-guaia-l(10),11-dien-15-ol    0.0000
     41 H           1.3790    2.3717   -2.4942 H         1     (-)-guaia-l(10),11-dien-15-ol    0.0000
     42 H          -0.3391    2.2763   -2.9727 H         1     (-)-guaia-l(10),11-dien-15-ol    0.0000
     43 H           0.0056    3.9953   -1.5757 H         1     (-)-guaia-l(10),11-dien-15-ol    0.0000
@<TRIPOS>BOND
     1     1     2     1
     2     1     8     2
     3     1     9     1
     4     2     3     1
     5     2    11     1
     6     2    14     1
     7     3     4     1
     8     3    19     1
     9     3    20     1
    10     4     5     1
    11     4    13     1
    12     4    21     1
    13     5     6     1
    14     5    22     1
    15     5    23     1
    16     6     7     1
    17     6    24     1
    18     6    25     1
    19     7     8     1
    20     7    26     1
    21     7    27     1
    22     8    17     1
    23     9    10     1
    24     9    28     1
    25     9    29     1
    26    10    11     1
    27    10    30     1
    28    10    31     1
    29    11    12     1
    30    11    32     1
    31    12    33     1
    32    12    34     1
    33    12    35     1
    34    13    15     2
    35    13    16     1
    36    15    36     1
    37    15    37     1
    38    16    38     1
    39    16    39     1
    40    16    40     1
    41    17    18     1
    42    17    41     1
    43    17    42     1
    44    18    43     1
