@<TRIPOS>MOLECULE
(-)-guaial(10),11-dien-15-al
41 42 1 0 0
SMALL
USER_CHARGES


@<TRIPOS>ATOM
      1 C          -0.7921    0.2366   -1.4982 C.2       1     (-)-guaial(10),11-dien-15-al    0.0000
      2 C          -1.0755   -1.1417   -0.9312 C.3       1     (-)-guaial(10),11-dien-15-al    0.0000
      3 C          -0.5667   -1.4115    0.5016 C.3       1     (-)-guaial(10),11-dien-15-al    0.0000
      4 C          -0.4119   -0.2753    1.5375 C.3       1     (-)-guaial(10),11-dien-15-al    0.0000
      5 C           0.5737    0.8610    1.1875 C.3       1     (-)-guaial(10),11-dien-15-al    0.0000
      6 C           1.8596    0.4853    0.4242 C.3       1     (-)-guaial(10),11-dien-15-al    0.0000
      7 C           1.6600    0.0927   -1.0531 C.3       1     (-)-guaial(10),11-dien-15-al    0.0000
      8 C           0.4414    0.7778   -1.6286 C.2       1     (-)-guaial(10),11-dien-15-al    0.0000
      9 C          -2.0925    0.8914   -1.9044 C.3       1     (-)-guaial(10),11-dien-15-al    0.0000
     10 C          -3.1794    0.0445   -1.2283 C.3       1     (-)-guaial(10),11-dien-15-al    0.0000
     11 C          -2.5778   -1.3643   -1.2308 C.3       1     (-)-guaial(10),11-dien-15-al    0.0000
     12 C          -3.3508   -2.3602   -0.3625 C.3       1     (-)-guaial(10),11-dien-15-al    0.0000
     13 C          -1.7312    0.2081    2.1261 C.2       1     (-)-guaial(10),11-dien-15-al    0.0000
     14 H          -0.5495   -1.8800   -1.5922 H         1     (-)-guaial(10),11-dien-15-al    0.0000
     15 C          -2.5231   -0.6323    2.8139 C.2       1     (-)-guaial(10),11-dien-15-al    0.0000
     16 C          -2.1279    1.6608    1.9869 C.3       1     (-)-guaial(10),11-dien-15-al    0.0000
     17 C           0.6295    2.1284   -2.2101 C.2       1     (-)-guaial(10),11-dien-15-al    0.0000
     18 O          -0.1930    2.7490   -2.8673 O.2       1     (-)-guaial(10),11-dien-15-al    0.0000
     19 H           0.4460   -1.8744    0.4186 H         1     (-)-guaial(10),11-dien-15-al    0.0000
     20 H          -1.1435   -2.2538    0.9423 H         1     (-)-guaial(10),11-dien-15-al    0.0000
     21 H           0.0835   -0.7793    2.4136 H         1     (-)-guaial(10),11-dien-15-al    0.0000
     22 H           0.8766    1.3564    2.1432 H         1     (-)-guaial(10),11-dien-15-al    0.0000
     23 H           0.0620    1.6638    0.6136 H         1     (-)-guaial(10),11-dien-15-al    0.0000
     24 H           2.5165    1.3913    0.4366 H         1     (-)-guaial(10),11-dien-15-al    0.0000
     25 H           2.4199   -0.3099    0.9692 H         1     (-)-guaial(10),11-dien-15-al    0.0000
     26 H           1.5823   -1.0087   -1.1746 H         1     (-)-guaial(10),11-dien-15-al    0.0000
     27 H           2.5649    0.3502   -1.6517 H         1     (-)-guaial(10),11-dien-15-al    0.0000
     28 H          -2.1683    1.9528   -1.5783 H         1     (-)-guaial(10),11-dien-15-al    0.0000
     29 H          -2.1956    0.8249   -3.0130 H         1     (-)-guaial(10),11-dien-15-al    0.0000
     30 H          -4.1593    0.1057   -1.7536 H         1     (-)-guaial(10),11-dien-15-al    0.0000
     31 H          -3.3380    0.3670   -0.1751 H         1     (-)-guaial(10),11-dien-15-al    0.0000
     32 H          -2.6631   -1.7290   -2.2896 H         1     (-)-guaial(10),11-dien-15-al    0.0000
     33 H          -2.8647   -3.3623   -0.3730 H         1     (-)-guaial(10),11-dien-15-al    0.0000
     34 H          -4.3905   -2.4880   -0.7416 H         1     (-)-guaial(10),11-dien-15-al    0.0000
     35 H          -3.4369   -2.0165    0.6904 H         1     (-)-guaial(10),11-dien-15-al    0.0000
     36 H          -3.4701   -0.2962    3.2610 H         1     (-)-guaial(10),11-dien-15-al    0.0000
     37 H          -2.2544   -1.6878    2.9647 H         1     (-)-guaial(10),11-dien-15-al    0.0000
     38 H          -2.1517    1.9816    0.9235 H         1     (-)-guaial(10),11-dien-15-al    0.0000
     39 H          -1.4152    2.3120    2.5406 H         1     (-)-guaial(10),11-dien-15-al    0.0000
     40 H          -3.1389    1.8684    2.4024 H         1     (-)-guaial(10),11-dien-15-al    0.0000
     41 H           1.6406    2.5611   -2.0400 H         1     (-)-guaial(10),11-dien-15-al    0.0000
@<TRIPOS>BOND
     1     1     2     1
     2     1     8     2
     3     1     9     1
     4     2     3     1
     5     2    11     1
     6     2    14     1
     7     3     4     1
     8     3    19     1
     9     3    20     1
    10     4     5     1
    11     4    13     1
    12     4    21     1
    13     5     6     1
    14     5    22     1
    15     5    23     1
    16     6     7     1
    17     6    24     1
    18     6    25     1
    19     7     8     1
    20     7    26     1
    21     7    27     1
    22     8    17     1
    23     9    10     1
    24     9    28     1
    25     9    29     1
    26    10    11     1
    27    10    30     1
    28    10    31     1
    29    11    12     1
    30    11    32     1
    31    12    33     1
    32    12    34     1
    33    12    35     1
    34    13    15     2
    35    13    16     1
    36    15    36     1
    37    15    37     1
    38    16    38     1
    39    16    39     1
    40    16    40     1
    41    17    18     2
    42    17    41     1
